examples/feeders/1_BOES_1/012_cargasBT_1_1.dss
New Load.BT_2113023_M1 bus1=UC2113023.1.4 phases=1 conn=Wye model=2 kv=0.219393102 kw=0.632408 pf=0.92 daily=RU1_DU status=variable vmaxpu=1.5 vminpu=0.92
New Load.BT_2113023_M2 bus1=UC2113023.1.4 phases=1 conn=Wye model=3 kv=0.219393102 kw=0.632408 pf=0.92 daily=RU1_DU status=variable vmaxpu=1.5 vminpu=0.92
New Load.BT_2118712_M1 bus1=UC2118712.1.2.3.4 phases=3 conn=Delta model=2 kv=0.38 kw=1.241118 pf=0.92 daily=RU4_DU status=variable vmaxpu=1.5 vminpu=0.92
New Load.BT_2118712_M2 bus1=UC2118712.1.2.3.4 phases=3 conn=Delta model=3 kv=0.38 kw=1.241118 pf=0.92 daily=RU4_DU status=variable vmaxpu=1.5 vminpu=0.92
New Load.BT_2127388_M1 bus1=UC2127388.2.3.4 phases=1 conn=Delta model=2 kv=0.38 kw=0.122988 pf=0.92 daily=RU7_DU status=variable vmaxpu=1.5 vminpu=0.92
New Load.BT_2127388_M2 bus1=UC2127388.2.3.4 phases=1 conn=Delta model=3 kv=0.38 kw=0.122988 pf=0.92 daily=RU7_DU status=variable vmaxpu=1.5 vminpu=0.92
New Load.BT_IP1712_M1 bus1=ET21_1202.1.4 phases=1 conn=Wye model=2 kv=0.219393102 kw=0.0801295 pf=0.92 daily=IP1_DU status=variable vmaxpu=1.5 vminpu=0.92
New Load.BT_IP1712_M2 bus1=ET21_1202.1.4 phases=1 conn=Wye model=3 kv=0.219393102 kw=0.0801295 pf=0.92 daily=IP1_DU status=variable vmaxpu=1.5 vminpu=0.92
New Load.BT_IP1713_M1 bus1=BT333031.1.4 phases=1 conn=Wye model=2 kv=0.219393102 kw=0.160259 pf=0.92 daily=IP1_DU status=variable vmaxpu=1.5 vminpu=0.92
New Load.BT_IP1713_M2 bus1=BT333031.1.4 phases=1 conn=Wye model=3 kv=0.219393102 kw=0.160259 pf=0.92 daily=IP1_DU status=variable vmaxpu=1.5 vminpu=0.92
New Load.BT_2113076_M1 bus1=UC2113076.1.2.4 phases=1 conn=Delta model=2 kv=0.44 kw=0.3294565 pf=0.92 daily=RU4_DU status=variable vmaxpu=1.5 vminpu=0.92
New Load.BT_2113076_M2 bus1=UC2113076.1.2.4 phases=1 conn=Delta model=3 kv=0.44 kw=0.3294565 pf=0.92 daily=RU4_DU status=variable vmaxpu=1.5 vminpu=0.92
New Load.BT_2113055_M1 bus1=UC2113055.1.2.3.4 phases=3 conn=Delta model=2 kv=0.38 kw=0.522287 pf=0.92 daily=RU1_DU status=variable vmaxpu=1.5 vminpu=0.92
New Load.BT_2113055_M2 bus1=UC2113055.1.2.3.4 phases=3 conn=Delta model=3 kv=0.38 kw=0.522287 pf=0.92 daily=RU1_DU status=variable vmaxpu=1.5 vminpu=0.92
New Load.BT_2129867_M1 bus1=UC2129867.1.2.3.4 phases=3 conn=Delta model=2 kv=0.38 kw=0.634278 pf=0.92 daily=RU3_DU status=variable vmaxpu=1.5 vminpu=0.92
New Load.BT_2129867_M2 bus1=UC2129867.1.2.3.4 phases=3 conn=Delta model=3 kv=0.38 kw=0.634278 pf=0.92 daily=RU3_DU status=variable vmaxpu=1.5 vminpu=0.92
New Load.BT_2126256_M1 bus1=UC2126256.1.2.3.4 phases=3 conn=Delta model=2 kv=0.38 kw=1.4288355 pf=0.92 daily=RU7_DU status=variable vmaxpu=1.5 vminpu=0.92
New Load.BT_2126256_M2 bus1=UC2126256.1.2.3.4 phases=3 conn=Delta model=3 kv=0.38 kw=1.4288355 pf=0.92 daily=RU7_DU status=variable vmaxpu=1.5 vminpu=0.92
New Load.BT_2134668_M1 bus1=UC2134668.1.2.3.4 phases=3 conn=Delta model=2 kv=0.38 kw=1.3499185 pf=0.92 daily=RU3_DU status=variable vmaxpu=1.5 vminpu=0.92
New Load.BT_2134668_M2 bus1=UC2134668.1.2.3.4 phases=3 conn=Delta model=3 kv=0.38 kw=1.3499185 pf=0.92 daily=RU3_DU status=variable vmaxpu=1.5 vminpu=0.92
New Load.BT_2113075_M1 bus1=UC2113075.1.2.3.4 phases=3 conn=Delta model=2 kv=0.38 kw=0.701627 pf=0.92 daily=RU1_DU status=variable vmaxpu=1.5 vminpu=0.92
New Load.BT_2113075_M2 bus1=UC2113075.1.2.3.4 phases=3 conn=Delta model=3 kv=0.38 kw=0.701627 pf=0.92 daily=RU1_DU status=variable vmaxpu=1.5 vminpu=0.92
New Load.BT_2124342_M1 bus1=UC2124342.1.2.3.4 phases=3 conn=Delta model=2 kv=0.38 kw=0.697268 pf=0.92 daily=RU4_DU status=variable vmaxpu=1.5 vminpu=0.92
New Load.BT_2124342_M2 bus1=UC2124342.1.2.3.4 phases=3 conn=Delta model=3 kv=0.38 kw=0.697268 pf=0.92 daily=RU4_DU status=variable vmaxpu=1.5 vminpu=0.92
New Load.BT_2113455_M1 bus1=UC2113455.1.2.3.4 phases=3 conn=Delta model=2 kv=0.38 kw=0.225243 pf=0.92 daily=CO4_DU status=variable vmaxpu=1.5 vminpu=0.92
New Load.BT_2113455_M2 bus1=UC2113455.1.2.3.4 phases=3 conn=Delta model=3 kv=0.38 kw=0.225243 pf=0.92 daily=CO4_DU status=variable vmaxpu=1.5 vminpu=0.92
New Load.BT_2113053_M1 bus1=UC2113053.1.2.3.4 phases=3 conn=Delta model=2 kv=0.38 kw=1.23435 pf=0.92 daily=RU5_DU status=variable vmaxpu=1.5 vminpu=0.92
New Load.BT_2113053_M2 bus1=UC2113053.1.2.3.4 phases=3 conn=Delta model=3 kv=0.38 kw=1.23435 pf=0.92 daily=RU5_DU status=variable vmaxpu=1.5 vminpu=0.92
New Load.BT_2113054_M1 bus1=UC2113054.1.2.3.4 phases=3 conn=Delta model=2 kv=0.38 kw=0.1583505 pf=0.92 daily=RU3_DU status=variable vmaxpu=1.5 vminpu=0.92
New Load.BT_2113054_M2 bus1=UC2113054.1.2.3.4 phases=3 conn=Delta model=3 kv=0.38 kw=0.1583505 pf=0.92 daily=RU3_DU status=variable vmaxpu=1.5 vminpu=0.92
New Load.BT_2113010_M1 bus1=UC2113010.1.4 phases=1 conn=Wye model=2 kv=0.219393102 kw=0.4159675 pf=0.92 daily=RU6_DU status=variable vmaxpu=1.5 vminpu=0.92
New Load.BT_2113010_M2 bus1=UC2113010.1.4 phases=1 conn=Wye model=3 kv=0.219393102 kw=0.4159675 pf=0.92 daily=RU6_DU status=variable vmaxpu=1.5 vminpu=0.92
New Load.BT_2113011_M1 bus1=UC2113011.1.2.3.4 phases=3 conn=Delta model=2 kv=0.38 kw=1.2410885 pf=0.92 daily=RU2_DU status=variable vmaxpu=1.5 vminpu=0.92
New Load.BT_2113011_M2 bus1=UC2113011.1.2.3.4 phases=3 conn=Delta model=3 kv=0.38 kw=1.2410885 pf=0.92 daily=RU2_DU status=variable vmaxpu=1.5 vminpu=0.92
New Load.BT_2113012_M1 bus1=UC2113012.1.2.3.4 phases=3 conn=Delta model=2 kv=0.38 kw=0.3490715 pf=0.92 daily=RU3_DU status=variable vmaxpu=1.5 vminpu=0.92
New Load.BT_2113012_M2 bus1=UC2113012.1.2.3.4 phases=3 conn=Delta model=3 kv=0.38 kw=0.3490715 pf=0.92 daily=RU3_DU status=variable vmaxpu=1.5 vminpu=0.92
New Load.BT_2134227_M1 bus1=UC2134227.1.2.3.4 phases=3 conn=Delta model=2 kv=0.38 kw=0.3683185 pf=0.92 daily=RU3_DU status=variable vmaxpu=1.5 vminpu=0.92
New Load.BT_2134227_M2 bus1=UC2134227.1.2.3.4 phases=3 conn=Delta model=3 kv=0.38 kw=0.3683185 pf=0.92 daily=RU3_DU status=variable vmaxpu=1.5 vminpu=0.92
New Load.BT_2135185_M1 bus1=UC2135185.1.4 phases=1 conn=Wye model=2 kv=0.219393102 kw=0.243429 pf=0.92 daily=RU2_DU status=variable vmaxpu=1.5 vminpu=0.92
New Load.BT_2135185_M2 bus1=UC2135185.1.4 phases=1 conn=Wye model=3 kv=0.219393102 kw=0.243429 pf=0.92 daily=RU2_DU status=variable vmaxpu=1.5 vminpu=0.92
New Load.BT_2128424_M1 bus1=UC2128424.1.2.3.4 phases=3 conn=Delta model=2 kv=0.38 kw=0.3814415 pf=0.92 daily=RU3_DU status=variable vmaxpu=1.5 vminpu=0.92
New Load.BT_2128424_M2 bus1=UC2128424.1.2.3.4 phases=3 conn=Delta model=3 kv=0.38 kw=0.3814415 pf=0.92 daily=RU3_DU status=variable vmaxpu=1.5 vminpu=0.92
New Load.BT_2132512_M1 bus1=UC2132512.3.4 phases=1 conn=Wye model=2 kv=0.219393102 kw=0.571055 pf=0.92 daily=RU1_DU status=variable vmaxpu=1.5 vminpu=0.92
New Load.BT_2132512_M2 bus1=UC2132512.3.4 phases=1 conn=Wye model=3 kv=0.219393102 kw=0.571055 pf=0.92 daily=RU1_DU status=variable vmaxpu=1.5 vminpu=0.92
New Load.BT_2138374_M1 bus1=UC2138374.2.4 phases=1 conn=Wye model=2 kv=0.219393102 kw=0 pf=0.92 daily=CO3_DU status=variable vmaxpu=1.5 vminpu=0.92
New Load.BT_2138374_M2 bus1=UC2138374.2.4 phases=1 conn=Wye model=3 kv=0.219393102 kw=0 pf=0.92 daily=CO3_DU status=variable vmaxpu=1.5 vminpu=0.92
New Load.BT_IP7652_M1 bus1=BT70681.1.4 phases=1 conn=Wye model=2 kv=0.219393102 kw=0.130187 pf=0.92 daily=IP1_DU status=variable vmaxpu=1.5 vminpu=0.92
New Load.BT_IP7652_M2 bus1=BT70681.1.4 phases=1 conn=Wye model=3 kv=0.219393102 kw=0.130187 pf=0.92 daily=IP1_DU status=variable vmaxpu=1.5 vminpu=0.92
New Load.BT_IP7653_M1 bus1=BT636401.1.4 phases=1 conn=Wye model=2 kv=0.219393102 kw=0.130187 pf=0.92 daily=IP1_DU status=variable vmaxpu=1.5 vminpu=0.92
New Load.BT_IP7653_M2 bus1=BT636401.1.4 phases=1 conn=Wye model=3 kv=0.219393102 kw=0.130187 pf=0.92 daily=IP1_DU status=variable vmaxpu=1.5 vminpu=0.92
New Load.BT_IP7654_M1 bus1=BT761441.1.4 phases=1 conn=Wye model=2 kv=0.219393102 kw=0.130187 pf=0.92 daily=IP1_DU status=variable vmaxpu=1.5 vminpu=0.92
New Load.BT_IP7654_M2 bus1=BT761441.1.4 phases=1 conn=Wye model=3 kv=0.219393102 kw=0.130187 pf=0.92 daily=IP1_DU status=variable vmaxpu=1.5 vminpu=0.92
New Load.BT_IP7655_M1 bus1=BT761451.1.4 phases=1 conn=Wye model=2 kv=0.219393102 kw=0.130187 pf=0.92 daily=IP1_DU status=variable vmaxpu=1.5 vminpu=0.92
New Load.BT_IP7655_M2 bus1=BT761451.1.4 phases=1 conn=Wye model=3 kv=0.219393102 kw=0.130187 pf=0.92 daily=IP1_DU status=variable vmaxpu=1.5 vminpu=0.92
New Load.BT_IP7656_M1 bus1=BT761461.1.4 phases=1 conn=Wye model=2 kv=0.219393102 kw=0.130187 pf=0.92 daily=IP1_DU status=variable vmaxpu=1.5 vminpu=0.92
New Load.BT_IP7656_M2 bus1=BT761461.1.4 phases=1 conn=Wye model=3 kv=0.219393102 kw=0.130187 pf=0.92 daily=IP1_DU status=variable vmaxpu=1.5 vminpu=0.92
New Load.BT_IP7657_M1 bus1=BT761471.1.4 phases=1 conn=Wye model=2 kv=0.219393102 kw=0.260374 pf=0.92 daily=IP1_DU status=variable vmaxpu=1.5 vminpu=0.92
New Load.BT_IP7657_M2 bus1=BT761471.1.4 phases=1 conn=Wye model=3 kv=0.219393102 kw=0.260374 pf=0.92 daily=IP1_DU status=variable vmaxpu=1.5 vminpu=0.92
New Load.BT_IP7658_M1 bus1=BT761481.1.4 phases=1 conn=Wye model=2 kv=0.219393102 kw=0.260374 pf=0.92 daily=IP1_DU status=variable vmaxpu=1.5 vminpu=0.92
New Load.BT_IP7658_M2 bus1=BT761481.1.4 phases=1 conn=Wye model=3 kv=0.219393102 kw=0.260374 pf=0.92 daily=IP1_DU status=variable vmaxpu=1.5 vminpu=0.92
New Load.BT_IP7659_M1 bus1=BT761481.1.4 phases=1 conn=Wye model=2 kv=0.219393102 kw=0.260374 pf=0.92 daily=IP1_DU status=variable vmaxpu=1.5 vminpu=0.92
New Load.BT_IP7659_M2 bus1=BT761481.1.4 phases=1 conn=Wye model=3 kv=0.219393102 kw=0.260374 pf=0.92 daily=IP1_DU status=variable vmaxpu=1.5 vminpu=0.92
New Load.BT_2131196_M1 bus1=UC2131196.3.4 phases=1 conn=Wye model=2 kv=0.219393102 kw=0 pf=0.92 daily=RU7_DU status=variable vmaxpu=1.5 vminpu=0.92
New Load.BT_2131196_M2 bus1=UC2131196.3.4 phases=1 conn=Wye model=3 kv=0.219393102 kw=0 pf=0.92 daily=RU7_DU status=variable vmaxpu=1.5 vminpu=0.92
New Load.BT_2129280_M1 bus1=UC2129280.1.2.3.4 phases=3 conn=Delta model=2 kv=0.38 kw=0.506478 pf=0.92 daily=RU4_DU status=variable vmaxpu=1.5 vminpu=0.92
New Load.BT_2129280_M2 bus1=UC2129280.1.2.3.4 phases=3 conn=Delta model=3 kv=0.38 kw=0.506478 pf=0.92 daily=RU4_DU status=variable vmaxpu=1.5 vminpu=0.92
New Load.BT_2136368_M1 bus1=UC2136368.1.2.3.4 phases=3 conn=Delta model=2 kv=0.38 kw=0.345695 pf=0.92 daily=RU6_DU status=variable vmaxpu=1.5 vminpu=0.92
New Load.BT_2136368_M2 bus1=UC2136368.1.2.3.4 phases=3 conn=Delta model=3 kv=0.38 kw=0.345695 pf=0.92 daily=RU6_DU status=variable vmaxpu=1.5 vminpu=0.92
New Load.BT_2136372_M1 bus1=UC2136372.3.4 phases=1 conn=Wye model=2 kv=0.219393102 kw=0.273156 pf=0.92 daily=RU6_DU status=variable vmaxpu=1.5 vminpu=0.92
New Load.BT_2136372_M2 bus1=UC2136372.3.4 phases=1 conn=Wye model=3 kv=0.219393102 kw=0.273156 pf=0.92 daily=RU6_DU status=variable vmaxpu=1.5 vminpu=0.92
New Load.BT_2136770_M1 bus1=UC2136770.1.2.3.4 phases=3 conn=Delta model=2 kv=0.38 kw=0.637851 pf=0.92 daily=RU7_DU status=variable vmaxpu=1.5 vminpu=0.92
New Load.BT_2136770_M2 bus1=UC2136770.1.2.3.4 phases=3 conn=Delta model=3 kv=0.38 kw=0.637851 pf=0.92 daily=RU7_DU status=variable vmaxpu=1.5 vminpu=0.92
New Load.BT_2113019_M1 bus1=UC2113019.1.2.3.4 phases=3 conn=Delta model=2 kv=0.38 kw=0.977878 pf=0.92 daily=RU7_DU status=variable vmaxpu=1.5 vminpu=0.92
New Load.BT_2113019_M2 bus1=UC2113019.1.2.3.4 phases=3 conn=Delta model=3 kv=0.38 kw=0.977878 pf=0.92 daily=RU7_DU status=variable vmaxpu=1.5 vminpu=0.92
New Load.BT_2113020_M1 bus1=UC2113020.2.4 phases=1 conn=Wye model=2 kv=0.219393102 kw=0.239438 pf=0.92 daily=RU2_DU status=variable vmaxpu=1.5 vminpu=0.92
New Load.BT_2113020_M2 bus1=UC2113020.2.4 phases=1 conn=Wye model=3 kv=0.219393102 kw=0.239438 pf=0.92 daily=RU2_DU status=variable vmaxpu=1.5 vminpu=0.92
New Load.BT_2113022_M1 bus1=UC2113022.1.2.3.4 phases=3 conn=Delta model=2 kv=0.38 kw=0.273709 pf=0.92 daily=RU7_DU status=variable vmaxpu=1.5 vminpu=0.92
New Load.BT_2113022_M2 bus1=UC2113022.1.2.3.4 phases=3 conn=Delta model=3 kv=0.38 kw=0.273709 pf=0.92 daily=RU7_DU status=variable vmaxpu=1.5 vminpu=0.92
New Load.BT_2118355_M1 bus1=UC2118355.1.4 phases=1 conn=Wye model=2 kv=0.219393102 kw=0.3150925 pf=0.92 daily=RU6_DU status=variable vmaxpu=1.5 vminpu=0.92
New Load.BT_2118355_M2 bus1=UC2118355.1.4 phases=1 conn=Wye model=3 kv=0.219393102 kw=0.3150925 pf=0.92 daily=RU6_DU status=variable vmaxpu=1.5 vminpu=0.92
New Load.BT_2121970_M1 bus1=UC2121970.1.2.3.4 phases=3 conn=Delta model=2 kv=0.38 kw=0.28109 pf=0.92 daily=RU6_DU status=variable vmaxpu=1.5 vminpu=0.92
New Load.BT_2121970_M2 bus1=UC2121970.1.2.3.4 phases=3 conn=Delta model=3 kv=0.38 kw=0.28109 pf=0.92 daily=RU6_DU status=variable vmaxpu=1.5 vminpu=0.92
New Load.BT_2124323_M1 bus1=UC2124323.1.4 phases=1 conn=Wye model=2 kv=0.219393102 kw=1.0964885 pf=0.92 daily=RU1_DU status=variable vmaxpu=1.5 vminpu=0.92
New Load.BT_2124323_M2 bus1=UC2124323.1.4 phases=1 conn=Wye model=3 kv=0.219393102 kw=1.0964885 pf=0.92 daily=RU1_DU status=variable vmaxpu=1.5 vminpu=0.92
New Load.BT_2113014_M1 bus1=UC2113014.1.2.3.4 phases=3 conn=Delta model=2 kv=0.38 kw=0.2422655 pf=0.92 daily=RU1_DU status=variable vmaxpu=1.5 vminpu=0.92
New Load.BT_2113014_M2 bus1=UC2113014.1.2.3.4 phases=3 conn=Delta model=3 kv=0.38 kw=0.2422655 pf=0.92 daily=RU1_DU status=variable vmaxpu=1.5 vminpu=0.92
New Load.BT_2113015_M1 bus1=UC2113015.1.2.3.4 phases=3 conn=Delta model=2 kv=0.38 kw=1.1153355 pf=0.92 daily=RU7_DU status=variable vmaxpu=1.5 vminpu=0.92
New Load.BT_2113015_M2 bus1=UC2113015.1.2.3.4 phases=3 conn=Delta model=3 kv=0.38 kw=1.1153355 pf=0.92 daily=RU7_DU status=variable vmaxpu=1.5 vminpu=0.92
New Load.BT_2135187_M1 bus1=UC2135187.1.2.3.4 phases=3 conn=Delta model=2 kv=0.38 kw=3.8605215 pf=0.92 daily=RU1_DU status=variable vmaxpu=1.5 vminpu=0.92
New Load.BT_2135187_M2 bus1=UC2135187.1.2.3.4 phases=3 conn=Delta model=3 kv=0.38 kw=3.8605215 pf=0.92 daily=RU1_DU status=variable vmaxpu=1.5 vminpu=0.92
New Load.BT_2113051_M1 bus1=UC2113051.1.4 phases=1 conn=Wye model=2 kv=0.219393102 kw=0.2725035 pf=0.92 daily=RU7_DU status=variable vmaxpu=1.5 vminpu=0.92
New Load.BT_2113051_M2 bus1=UC2113051.1.4 phases=1 conn=Wye model=3 kv=0.219393102 kw=0.2725035 pf=0.92 daily=RU7_DU status=variable vmaxpu=1.5 vminpu=0.92
New Load.BT_2113052_M1 bus1=UC2113052.1.4 phases=1 conn=Wye model=2 kv=0.219393102 kw=0.137354 pf=0.92 daily=RU3_DU status=variable vmaxpu=1.5 vminpu=0.92
New Load.BT_2113052_M2 bus1=UC2113052.1.4 phases=1 conn=Wye model=3 kv=0.219393102 kw=0.137354 pf=0.92 daily=RU3_DU status=variable vmaxpu=1.5 vminpu=0.92
New Load.BT_2113056_M1 bus1=UC2113056.1.2.3.4 phases=3 conn=Delta model=2 kv=0.38 kw=0.178005 pf=0.92 daily=RU4_DU status=variable vmaxpu=1.5 vminpu=0.92
New Load.BT_2113056_M2 bus1=UC2113056.1.2.3.4 phases=3 conn=Delta model=3 kv=0.38 kw=0.178005 pf=0.92 daily=RU4_DU status=variable vmaxpu=1.5 vminpu=0.92
New Load.BT_2113057_M1 bus1=UC2113057.1.2.3.4 phases=3 conn=Delta model=2 kv=0.38 kw=0.5407315 pf=0.92 daily=RU2_DU status=variable vmaxpu=1.5 vminpu=0.92
New Load.BT_2113057_M2 bus1=UC2113057.1.2.3.4 phases=3 conn=Delta model=3 kv=0.38 kw=0.5407315 pf=0.92 daily=RU2_DU status=variable vmaxpu=1.5 vminpu=0.92
New Load.BT_2113456_M1 bus1=UC2113456.1.2.3.4 phases=3 conn=Delta model=2 kv=0.38 kw=0.3186385 pf=0.92 daily=RU4_DU status=variable vmaxpu=1.5 vminpu=0.92
New Load.BT_2113456_M2 bus1=UC2113456.1.2.3.4 phases=3 conn=Delta model=3 kv=0.38 kw=0.3186385 pf=0.92 daily=RU4_DU status=variable vmaxpu=1.5 vminpu=0.92
New Load.BT_2113003_M1 bus1=UC2113003.1.2.3.4 phases=3 conn=Delta model=2 kv=0.38 kw=0.5133625 pf=0.92 daily=RU4_DU status=variable vmaxpu=1.5 vminpu=0.92
New Load.BT_2113003_M2 bus1=UC2113003.1.2.3.4 phases=3 conn=Delta model=3 kv=0.38 kw=0.5133625 pf=0.92 daily=RU4_DU status=variable vmaxpu=1.5 vminpu=0.92
New Load.BT_2113004_M1 bus1=UC2113004.1.2.3.4 phases=3 conn=Delta model=2 kv=0.38 kw=0.3117545 pf=0.92 daily=RU4_DU status=variable vmaxpu=1.5 vminpu=0.92
New Load.BT_2113004_M2 bus1=UC2113004.1.2.3.4 phases=3 conn=Delta model=3 kv=0.38 kw=0.3117545 pf=0.92 daily=RU4_DU status=variable vmaxpu=1.5 vminpu=0.92
New Load.BT_2136842_M1 bus1=UC2136842.3.4 phases=1 conn=Wye model=2 kv=0.219393102 kw=0.0708085 pf=0.92 daily=RU4_DU status=variable vmaxpu=1.5 vminpu=0.92
New Load.BT_2136842_M2 bus1=UC2136842.3.4 phases=1 conn=Wye model=3 kv=0.219393102 kw=0.0708085 pf=0.92 daily=RU4_DU status=variable vmaxpu=1.5 vminpu=0.92
New Load.BT_2135106_M1 bus1=UC2135106.1.4 phases=1 conn=Wye model=2 kv=0.219393102 kw=0.184889 pf=0.92 daily=RU4_DU status=variable vmaxpu=1.5 vminpu=0.92
New Load.BT_2135106_M2 bus1=UC2135106.1.4 phases=1 conn=Wye model=3 kv=0.219393102 kw=0.184889 pf=0.92 daily=RU4_DU status=variable vmaxpu=1.5 vminpu=0.92
New Load.BT_2131364_M1 bus1=UC2131364.1.2.3.4 phases=3 conn=Delta model=2 kv=0.38 kw=0.3429475 pf=0.92 daily=RU3_DU status=variable vmaxpu=1.5 vminpu=0.92
New Load.BT_2131364_M2 bus1=UC2131364.1.2.3.4 phases=3 conn=Delta model=3 kv=0.38 kw=0.3429475 pf=0.92 daily=RU3_DU status=variable vmaxpu=1.5 vminpu=0.92
New Load.BT_2130606_M1 bus1=UC2130606.3.4 phases=1 conn=Wye model=2 kv=0.219393102 kw=0 pf=0.92 daily=RU5_DU status=variable vmaxpu=1.5 vminpu=0.92
New Load.BT_2130606_M2 bus1=UC2130606.3.4 phases=1 conn=Wye model=3 kv=0.219393102 kw=0 pf=0.92 daily=RU5_DU status=variable vmaxpu=1.5 vminpu=0.92
New Load.BT_2133553_M1 bus1=UC2133553.1.4 phases=1 conn=Wye model=2 kv=0.219393102 kw=0.102449 pf=0.92 daily=RU8_DU status=variable vmaxpu=1.5 vminpu=0.92
New Load.BT_2133553_M2 bus1=UC2133553.1.4 phases=1 conn=Wye model=3 kv=0.219393102 kw=0.102449 pf=0.92 daily=RU8_DU status=variable vmaxpu=1.5 vminpu=0.92
New Load.BT_2113007_M1 bus1=UC2113007.1.2.3.4 phases=3 conn=Delta model=2 kv=0.38 kw=0.0505575 pf=0.92 daily=RU5_DU status=variable vmaxpu=1.5 vminpu=0.92
New Load.BT_2113007_M2 bus1=UC2113007.1.2.3.4 phases=3 conn=Delta model=3 kv=0.38 kw=0.0505575 pf=0.92 daily=RU5_DU status=variable vmaxpu=1.5 vminpu=0.92
New Load.BT_2113009_M1 bus1=UC2113009.1.2.3.4 phases=3 conn=Delta model=2 kv=0.38 kw=0.460256 pf=0.92 daily=RU4_DU status=variable vmaxpu=1.5 vminpu=0.92
New Load.BT_2113009_M2 bus1=UC2113009.1.2.3.4 phases=3 conn=Delta model=3 kv=0.38 kw=0.460256 pf=0.92 daily=RU4_DU status=variable vmaxpu=1.5 vminpu=0.92
New Load.BT_2124318_M1 bus1=UC2124318.1.4 phases=1 conn=Wye model=2 kv=0.219393102 kw=0.0598595 pf=0.92 daily=RU2_DU status=variable vmaxpu=1.5 vminpu=0.92
New Load.BT_2124318_M2 bus1=UC2124318.1.4 phases=1 conn=Wye model=3 kv=0.219393102 kw=0.0598595 pf=0.92 daily=RU2_DU status=variable vmaxpu=1.5 vminpu=0.92
New Load.BT_2130277_M1 bus1=UC2130277.1.2.3.4 phases=3 conn=Delta model=2 kv=0.38 kw=0.276556 pf=0.92 daily=RU6_DU status=variable vmaxpu=1.5 vminpu=0.92
New Load.BT_2130277_M2 bus1=UC2130277.1.2.3.4 phases=3 conn=Delta model=3 kv=0.38 kw=0.276556 pf=0.92 daily=RU6_DU status=variable vmaxpu=1.5 vminpu=0.92
New Load.BT_2135552_M1 bus1=UC2135552.1.2.3.4 phases=3 conn=Delta model=2 kv=0.38 kw=0.215351 pf=0.92 daily=RU6_DU status=variable vmaxpu=1.5 vminpu=0.92
New Load.BT_2135552_M2 bus1=UC2135552.1.2.3.4 phases=3 conn=Delta model=3 kv=0.38 kw=0.215351 pf=0.92 daily=RU6_DU status=variable vmaxpu=1.5 vminpu=0.92
New Load.BT_2136261_M1 bus1=UC2136261.2.4 phases=1 conn=Wye model=2 kv=0.219393102 kw=0.308279 pf=0.92 daily=RU5_DU status=variable vmaxpu=1.5 vminpu=0.92
New Load.BT_2136261_M2 bus1=UC2136261.2.4 phases=1 conn=Wye model=3 kv=0.219393102 kw=0.308279 pf=0.92 daily=RU5_DU status=variable vmaxpu=1.5 vminpu=0.92
New Load.BT_2113058_M1 bus1=UC2113058.1.2.3.4 phases=3 conn=Delta model=2 kv=0.38 kw=2.204828 pf=0.92 daily=RU2_DU status=variable vmaxpu=1.5 vminpu=0.92
New Load.BT_2113058_M2 bus1=UC2113058.1.2.3.4 phases=3 conn=Delta model=3 kv=0.38 kw=2.204828 pf=0.92 daily=RU2_DU status=variable vmaxpu=1.5 vminpu=0.92
New Load.BT_IP1698_M1 bus1=BT339551.1.4 phases=1 conn=Wye model=2 kv=0.219393102 kw=0.130187 pf=0.92 daily=IP1_DU status=variable vmaxpu=1.5 vminpu=0.92
New Load.BT_IP1698_M2 bus1=BT339551.1.4 phases=1 conn=Wye model=3 kv=0.219393102 kw=0.130187 pf=0.92 daily=IP1_DU status=variable vmaxpu=1.5 vminpu=0.92
New Load.BT_IP1699_M1 bus1=BT339521.1.4 phases=1 conn=Wye model=2 kv=0.219393102 kw=0.130187 pf=0.92 daily=IP1_DU status=variable vmaxpu=1.5 vminpu=0.92
New Load.BT_IP1699_M2 bus1=BT339521.1.4 phases=1 conn=Wye model=3 kv=0.219393102 kw=0.130187 pf=0.92 daily=IP1_DU status=variable vmaxpu=1.5 vminpu=0.92
New Load.BT_IP1700_M1 bus1=BT339511.1.4 phases=1 conn=Wye model=2 kv=0.219393102 kw=0.130187 pf=0.92 daily=IP1_DU status=variable vmaxpu=1.5 vminpu=0.92
New Load.BT_IP1700_M2 bus1=BT339511.1.4 phases=1 conn=Wye model=3 kv=0.219393102 kw=0.130187 pf=0.92 daily=IP1_DU status=variable vmaxpu=1.5 vminpu=0.92
New Load.BT_IP1701_M1 bus1=BT339501.1.4 phases=1 conn=Wye model=2 kv=0.219393102 kw=0.130187 pf=0.92 daily=IP1_DU status=variable vmaxpu=1.5 vminpu=0.92
New Load.BT_IP1701_M2 bus1=BT339501.1.4 phases=1 conn=Wye model=3 kv=0.219393102 kw=0.130187 pf=0.92 daily=IP1_DU status=variable vmaxpu=1.5 vminpu=0.92
New Load.BT_IP1702_M1 bus1=BT339431.1.4 phases=1 conn=Wye model=2 kv=0.219393102 kw=0.130187 pf=0.92 daily=IP1_DU status=variable vmaxpu=1.5 vminpu=0.92
New Load.BT_IP1702_M2 bus1=BT339431.1.4 phases=1 conn=Wye model=3 kv=0.219393102 kw=0.130187 pf=0.92 daily=IP1_DU status=variable vmaxpu=1.5 vminpu=0.92
New Load.BT_IP1703_M1 bus1=BT339421.1.4 phases=1 conn=Wye model=2 kv=0.219393102 kw=0.130187 pf=0.92 daily=IP1_DU status=variable vmaxpu=1.5 vminpu=0.92
New Load.BT_IP1703_M2 bus1=BT339421.1.4 phases=1 conn=Wye model=3 kv=0.219393102 kw=0.130187 pf=0.92 daily=IP1_DU status=variable vmaxpu=1.5 vminpu=0.92
New Load.BT_IP1704_M1 bus1=ET21_4312.1.4 phases=1 conn=Wye model=2 kv=0.219393102 kw=0.130187 pf=0.92 daily=IP1_DU status=variable vmaxpu=1.5 vminpu=0.92
New Load.BT_IP1704_M2 bus1=ET21_4312.1.4 phases=1 conn=Wye model=3 kv=0.219393102 kw=0.130187 pf=0.92 daily=IP1_DU status=variable vmaxpu=1.5 vminpu=0.92
New Load.BT_IP1705_M1 bus1=BT333401.1.4 phases=1 conn=Wye model=2 kv=0.219393102 kw=0.130187 pf=0.92 daily=IP1_DU status=variable vmaxpu=1.5 vminpu=0.92
New Load.BT_IP1705_M2 bus1=BT333401.1.4 phases=1 conn=Wye model=3 kv=0.219393102 kw=0.130187 pf=0.92 daily=IP1_DU status=variable vmaxpu=1.5 vminpu=0.92
New Load.BT_IP1706_M1 bus1=BT327771.1.4 phases=1 conn=Wye model=2 kv=0.219393102 kw=0.130187 pf=0.92 daily=IP1_DU status=variable vmaxpu=1.5 vminpu=0.92
New Load.BT_IP1706_M2 bus1=BT327771.1.4 phases=1 conn=Wye model=3 kv=0.219393102 kw=0.130187 pf=0.92 daily=IP1_DU status=variable vmaxpu=1.5 vminpu=0.92
New Load.BT_IP1707_M1 bus1=BT323741.1.4 phases=1 conn=Wye model=2 kv=0.219393102 kw=0.130187 pf=0.92 daily=IP1_DU status=variable vmaxpu=1.5 vminpu=0.92
New Load.BT_IP1707_M2 bus1=BT323741.1.4 phases=1 conn=Wye model=3 kv=0.219393102 kw=0.130187 pf=0.92 daily=IP1_DU status=variable vmaxpu=1.5 vminpu=0.92
New Load.BT_IP1708_M1 bus1=BT323321.1.4 phases=1 conn=Wye model=2 kv=0.219393102 kw=0.130187 pf=0.92 daily=IP1_DU status=variable vmaxpu=1.5 vminpu=0.92
New Load.BT_IP1708_M2 bus1=BT323321.1.4 phases=1 conn=Wye model=3 kv=0.219393102 kw=0.130187 pf=0.92 daily=IP1_DU status=variable vmaxpu=1.5 vminpu=0.92
New Load.BT_IP1709_M1 bus1=BT323481.1.4 phases=1 conn=Wye model=2 kv=0.219393102 kw=0.130187 pf=0.92 daily=IP1_DU status=variable vmaxpu=1.5 vminpu=0.92
New Load.BT_IP1709_M2 bus1=BT323481.1.4 phases=1 conn=Wye model=3 kv=0.219393102 kw=0.130187 pf=0.92 daily=IP1_DU status=variable vmaxpu=1.5 vminpu=0.92
New Load.BT_IP1710_M1 bus1=BT684431.1.4 phases=1 conn=Wye model=2 kv=0.219393102 kw=0.130187 pf=0.92 daily=IP1_DU status=variable vmaxpu=1.5 vminpu=0.92
New Load.BT_IP1710_M2 bus1=BT684431.1.4 phases=1 conn=Wye model=3 kv=0.219393102 kw=0.130187 pf=0.92 daily=IP1_DU status=variable vmaxpu=1.5 vminpu=0.92
New Load.BT_IP1711_M1 bus1=BT684441.1.4 phases=1 conn=Wye model=2 kv=0.219393102 kw=0.130187 pf=0.92 daily=IP1_DU status=variable vmaxpu=1.5 vminpu=0.92
New Load.BT_IP1711_M2 bus1=BT684441.1.4 phases=1 conn=Wye model=3 kv=0.219393102 kw=0.130187 pf=0.92 daily=IP1_DU status=variable vmaxpu=1.5 vminpu=0.92
New Load.BT_IP1691_M1 bus1=BT306551.1.4 phases=1 conn=Wye model=2 kv=0.219393102 kw=0.130187 pf=0.92 daily=IP1_DU status=variable vmaxpu=1.5 vminpu=0.92
New Load.BT_IP1691_M2 bus1=BT306551.1.4 phases=1 conn=Wye model=3 kv=0.219393102 kw=0.130187 pf=0.92 daily=IP1_DU status=variable vmaxpu=1.5 vminpu=0.92
New Load.BT_IP1692_M1 bus1=BT306481.1.4 phases=1 conn=Wye model=2 kv=0.219393102 kw=0.130187 pf=0.92 daily=IP1_DU status=variable vmaxpu=1.5 vminpu=0.92
New Load.BT_IP1692_M2 bus1=BT306481.1.4 phases=1 conn=Wye model=3 kv=0.219393102 kw=0.130187 pf=0.92 daily=IP1_DU status=variable vmaxpu=1.5 vminpu=0.92
New Load.BT_IP1693_M1 bus1=ET21_4313.1.4 phases=1 conn=Wye model=2 kv=0.219393102 kw=0.130187 pf=0.92 daily=IP1_DU status=variable vmaxpu=1.5 vminpu=0.92
New Load.BT_IP1693_M2 bus1=ET21_4313.1.4 phases=1 conn=Wye model=3 kv=0.219393102 kw=0.130187 pf=0.92 daily=IP1_DU status=variable vmaxpu=1.5 vminpu=0.92
New Load.BT_IP1694_M1 bus1=BT353771.1.4 phases=1 conn=Wye model=2 kv=0.219393102 kw=0.130187 pf=0.92 daily=IP1_DU status=variable vmaxpu=1.5 vminpu=0.92
New Load.BT_IP1694_M2 bus1=BT353771.1.4 phases=1 conn=Wye model=3 kv=0.219393102 kw=0.130187 pf=0.92 daily=IP1_DU status=variable vmaxpu=1.5 vminpu=0.92
New Load.BT_IP1695_M1 bus1=BT353761.1.4 phases=1 conn=Wye model=2 kv=0.219393102 kw=0.130187 pf=0.92 daily=IP1_DU status=variable vmaxpu=1.5 vminpu=0.92
New Load.BT_IP1695_M2 bus1=BT353761.1.4 phases=1 conn=Wye model=3 kv=0.219393102 kw=0.130187 pf=0.92 daily=IP1_DU status=variable vmaxpu=1.5 vminpu=0.92
New Load.BT_IP1696_M1 bus1=BT339571.1.4 phases=1 conn=Wye model=2 kv=0.219393102 kw=0.130187 pf=0.92 daily=IP1_DU status=variable vmaxpu=1.5 vminpu=0.92
New Load.BT_IP1696_M2 bus1=BT339571.1.4 phases=1 conn=Wye model=3 kv=0.219393102 kw=0.130187 pf=0.92 daily=IP1_DU status=variable vmaxpu=1.5 vminpu=0.92
New Load.BT_IP1697_M1 bus1=BT339561.1.4 phases=1 conn=Wye model=2 kv=0.219393102 kw=0.130187 pf=0.92 daily=IP1_DU status=variable vmaxpu=1.5 vminpu=0.92
New Load.BT_IP1697_M2 bus1=BT339561.1.4 phases=1 conn=Wye model=3 kv=0.219393102 kw=0.130187 pf=0.92 daily=IP1_DU status=variable vmaxpu=1.5 vminpu=0.92
New Load.BT_2122823_M1 bus1=UC2122823.1.4 phases=1 conn=Wye model=2 kv=0.22 kw=0 pf=0.92 daily=RU8_DU status=variable vmaxpu=1.5 vminpu=0.92
New Load.BT_2122823_M2 bus1=UC2122823.1.4 phases=1 conn=Wye model=3 kv=0.22 kw=0 pf=0.92 daily=RU8_DU status=variable vmaxpu=1.5 vminpu=0.92
New Load.BT_2131121_M1 bus1=UC2131121.1.2.3.4 phases=3 conn=Delta model=2 kv=0.38 kw=0.5144215 pf=0.92 daily=RU1_DU status=variable vmaxpu=1.5 vminpu=0.92
New Load.BT_2131121_M2 bus1=UC2131121.1.2.3.4 phases=3 conn=Delta model=3 kv=0.38 kw=0.5144215 pf=0.92 daily=RU1_DU status=variable vmaxpu=1.5 vminpu=0.92
New Load.BT_2131368_M1 bus1=UC2131368.1.4 phases=1 conn=Wye model=2 kv=0.22 kw=0.6285255 pf=0.92 daily=RU2_DU status=variable vmaxpu=1.5 vminpu=0.92
New Load.BT_2131368_M2 bus1=UC2131368.1.4 phases=1 conn=Wye model=3 kv=0.22 kw=0.6285255 pf=0.92 daily=RU2_DU status=variable vmaxpu=1.5 vminpu=0.92
New Load.BT_2131947_M1 bus1=UC2131947.1.4 phases=1 conn=Wye model=2 kv=0.219393102 kw=0.1235005 pf=0.92 daily=RU8_DU status=variable vmaxpu=1.5 vminpu=0.92
New Load.BT_2131947_M2 bus1=UC2131947.1.4 phases=1 conn=Wye model=3 kv=0.219393102 kw=0.1235005 pf=0.92 daily=RU8_DU status=variable vmaxpu=1.5 vminpu=0.92
New Load.BT_2131157_M1 bus1=UC2131157.1.2.3.4 phases=3 conn=Delta model=2 kv=0.38 kw=0.908111 pf=0.92 daily=RU3_DU status=variable vmaxpu=1.5 vminpu=0.92
New Load.BT_2131157_M2 bus1=UC2131157.1.2.3.4 phases=3 conn=Delta model=3 kv=0.38 kw=0.908111 pf=0.92 daily=RU3_DU status=variable vmaxpu=1.5 vminpu=0.92
New Load.BT_2133345_M1 bus1=UC2133345.2.4 phases=1 conn=Wye model=2 kv=0.219393102 kw=0.275302 pf=0.92 daily=RU1_DU status=variable vmaxpu=1.5 vminpu=0.92
New Load.BT_2133345_M2 bus1=UC2133345.2.4 phases=1 conn=Wye model=3 kv=0.219393102 kw=0.275302 pf=0.92 daily=RU1_DU status=variable vmaxpu=1.5 vminpu=0.92
New Load.BT_2130379_M1 bus1=UC2130379.2.4 phases=1 conn=Wye model=2 kv=0.219393102 kw=0.612563 pf=0.92 daily=RU2_DU status=variable vmaxpu=1.5 vminpu=0.92
New Load.BT_2130379_M2 bus1=UC2130379.2.4 phases=1 conn=Wye model=3 kv=0.219393102 kw=0.612563 pf=0.92 daily=RU2_DU status=variable vmaxpu=1.5 vminpu=0.92
New Load.BT_2130614_M1 bus1=UC2130614.3.4 phases=1 conn=Wye model=2 kv=0.219393102 kw=0.1048145 pf=0.92 daily=RU5_DU status=variable vmaxpu=1.5 vminpu=0.92
New Load.BT_2130614_M2 bus1=UC2130614.3.4 phases=1 conn=Wye model=3 kv=0.219393102 kw=0.1048145 pf=0.92 daily=RU5_DU status=variable vmaxpu=1.5 vminpu=0.92
New Load.BT_2130881_M1 bus1=UC2130881.1.4 phases=1 conn=Wye model=2 kv=0.219393102 kw=0.3074705 pf=0.92 daily=RU7_DU status=variable vmaxpu=1.5 vminpu=0.92
New Load.BT_2130881_M2 bus1=UC2130881.1.4 phases=1 conn=Wye model=3 kv=0.219393102 kw=0.3074705 pf=0.92 daily=RU7_DU status=variable vmaxpu=1.5 vminpu=0.92
New Load.BT_2129901_M1 bus1=UC2129901.1.4 phases=1 conn=Wye model=2 kv=0.219393102 kw=0.2218145 pf=0.92 daily=RU1_DU status=variable vmaxpu=1.5 vminpu=0.92
New Load.BT_2129901_M2 bus1=UC2129901.1.4 phases=1 conn=Wye model=3 kv=0.219393102 kw=0.2218145 pf=0.92 daily=RU1_DU status=variable vmaxpu=1.5 vminpu=0.92
New Load.BT_2135109_M1 bus1=UC2135109.2.4 phases=1 conn=Wye model=2 kv=0.219393102 kw=0.3032885 pf=0.92 daily=RU2_DU status=variable vmaxpu=1.5 vminpu=0.92
New Load.BT_2135109_M2 bus1=UC2135109.2.4 phases=1 conn=Wye model=3 kv=0.219393102 kw=0.3032885 pf=0.92 daily=RU2_DU status=variable vmaxpu=1.5 vminpu=0.92
New Load.BT_2113002_M1 bus1=UC2113002.1.2.3.4 phases=3 conn=Delta model=2 kv=0.38 kw=0.3350815 pf=0.92 daily=RU1_DU status=variable vmaxpu=1.5 vminpu=0.92
New Load.BT_2113002_M2 bus1=UC2113002.1.2.3.4 phases=3 conn=Delta model=3 kv=0.38 kw=0.3350815 pf=0.92 daily=RU1_DU status=variable vmaxpu=1.5 vminpu=0.92
New Load.BT_2114379_M1 bus1=UC2114379.1.2.3.4 phases=3 conn=Delta model=2 kv=0.38 kw=0.4549325 pf=0.92 daily=RU2_DU status=variable vmaxpu=1.5 vminpu=0.92
New Load.BT_2114379_M2 bus1=UC2114379.1.2.3.4 phases=3 conn=Delta model=3 kv=0.38 kw=0.4549325 pf=0.92 daily=RU2_DU status=variable vmaxpu=1.5 vminpu=0.92
New Load.BT_IP3309_M1 bus1=BT10231.1.4 phases=1 conn=Wye model=2 kv=0.219393102 kw=0.0801295 pf=0.92 daily=IP1_DU status=variable vmaxpu=1.5 vminpu=0.92
New Load.BT_IP3309_M2 bus1=BT10231.1.4 phases=1 conn=Wye model=3 kv=0.219393102 kw=0.0801295 pf=0.92 daily=IP1_DU status=variable vmaxpu=1.5 vminpu=0.92
New Load.BT_IP3310_M1 bus1=BT716311.1.4 phases=1 conn=Wye model=2 kv=0.219393102 kw=0.0801295 pf=0.92 daily=IP1_DU status=variable vmaxpu=1.5 vminpu=0.92
New Load.BT_IP3310_M2 bus1=BT716311.1.4 phases=1 conn=Wye model=3 kv=0.219393102 kw=0.0801295 pf=0.92 daily=IP1_DU status=variable vmaxpu=1.5 vminpu=0.92
...
